&jules_drive
data_end='2019-12-31 21:00:00',
data_period=10800,
data_start='2003-01-01 00:00:00',
diff_frac_const=0.4,
file='data/DRPI1001.dat',
interp='b','b','nb','i','i','i','i','b',
l_daily_disagg=.false.,
l_imogen=.false.,
l_perturb_driving=.false.,
nvars=8,
read_list=.false.,
t_for_con_rain=288.15,
t_for_snow=274.15,
tpl_name='',
var='sw_down','lw_down','precip','t','wind','pstar','q','diff_rad',
var_name='',
z1_tq_in=2.0,
z1_tq_vary=.false.,
/
