&jules_surface
all_tiles=0,
beta1=0.83,
beta2=0.93,
fwe_c3=0.5,
fwe_c4=2.0E+04,
hleaf=5.7E+04,
hwood=1.1E+04,
iscrntdiag=0,
l_aggregate=.false.,
l_anthrop_heat_src=.false.,
l_elev_land_ice=.false.,
l_elev_lw_down=.false.,
l_epot_corr=.false.,
l_land_ice_imp=.false.,
l_point_data=.true.,
l_urban2t=.false.,
cor_mo_iter=1,
beta_cnv_bl=0.8,
fd_hill_option=2
/
