&jules_deposition
l_deposition=.false.,
/
