&jules_output
dump_period=1,
nprofiles=3,
output_dir='./output',
run_id='SC0072',
/
&jules_output_profile
file_period=0,
nvars=36,
output_main_run=.true.,
output_period=86400,
output_spinup=.false.,
output_type='M','M','M','M','M','M','M','M','M','M','M','M','M','M','M','M','M','M','M','M','M','M','M','M','M','M','M','M','M','M','M','M','M','M','M','M',
profile_name='day',
var='fqw','ftl','le','rad_net_tile','tstar','gpp','npp','resp_p','lai','canht','resp_s_gb','t_soil','smcl','soil_wet','sm_crit','sm_wilt','fsmc','smc_tot','gc','precip','snow_depth_gb','snow_can_gb','snow_grnd_gb','snowfall','t1p5m_gb','resp_l','resp_r','resp_w','sw_down','sm_sat','ecan','esoil','et_stom','runoff','sub_surf_roff','surf_roff',
var_name='','','','','','','','','','','','','','','','','','','','','','','','','','','','','','','','','','','','',
/
&jules_output_profile
file_period=0,
nvars=8,
output_main_run=.true.,
output_period=86400,
output_spinup=.false.,
output_type='M','M','M','M','M','M','M','M',
profile_name='day_crop',
var='cropdvi','croplai','cropcanht','cropharvc','cropreservec','cropstemc','croprootc','cropleafc',
var_name='','','','','','','','',
/
&jules_output_profile
file_period=0,
nvars=4,
output_main_run=.true.,
output_start='2014-06-01 00:00:00',
output_period=-1,
output_spinup=.false.,
output_type='X','A','X','X',
profile_name='mon',
var='harvest_trigger','harvest_counter','cropyield','cropdvi',
var_name='','','','',
/
