&jules_deposition
l_deposition=<l_deposition>,
/
