&jules_frac
file=<file>,
/
&jules_soil_props
const_val=<const_val>,
const_z=<const_z>,
file=<file>,
nvars=<nvars>,
tpl_name=<tpl_name>,
use_file=<use_file>,
var=<var>,
var_name=<var_name>,
/
&jules_agric
/
&jules_crop_props
const_val=<const_val>,
nvars=<nvars>,
use_file=<use_file>,
var=<var>,
/
&jules_irrig
const_frac_irr=<const_frac_irr>,
frac_irrig_all_tiles=<frac_irrig_all_tiles>,
read_file=<read_file>,
/
&jules_co2
/
