&jules_surface
all_tiles=<all_tiles>,
beta1=<beta1>,
beta2=<beta2>,
fwe_c3=<fwe_c3>,
fwe_c4=<fwe_c4>,
hleaf=<hleaf>,
hwood=<hwood>,
iscrntdiag=<iscrntdiag>,
l_aggregate=<l_aggregate>,
l_anthrop_heat_src=<l_anthrop_heat_src>,
l_elev_land_ice=<l_elev_land_ice>,
l_elev_lw_down=<l_elev_lw_down>,
l_epot_corr=<l_epot_corr>,
l_land_ice_imp=<l_land_ice_imp>,
l_point_data=<l_point_data>,
l_urban2t=<l_urban2t>,
cor_mo_iter=<cor_mo_iter>,
beta_cnv_bl=<beta_cnv_bl>,
/
