&jules_prescribed
n_datasets=1,
/
&jules_prescribed_dataset
data_end='2020-12-31 00:00:00',
data_period=-2,
data_start='1980-01-01 00:00:00',
file='data/co2_NOAA_1980_2020.dat',
interp='nf',
is_climatology=.false.,
nvars=1,
read_list=.false.,
tpl_name='',
var='co2_mmr',
var_name='co2_mmr',
/
