&jules_model_environment
l_jules_parent=<l_jules_parent>,
/
