&jules_drive
data_end=<data_end>,
data_period=<data_period>,
data_start=<data_start>,
diff_frac_const=<diff_frac_const>,
file=<file>,
interp=<interp>,
l_daily_disagg=<l_daily_disagg>,
l_imogen=<l_imogen>,
l_perturb_driving=<l_perturb_driving>,
nvars=<nvars>,
read_list=<read_list>,
t_for_con_rain=<t_for_con_rain>,
t_for_snow=<t_for_snow>,
tpl_name=<tpl_name>,
var=<var>,
var_name=<var_name>,
z1_tq_in=<z1_tq_in>,
z1_tq_vary=<z1_tq_vary>,
/
