&jules_input_grid
grid_is_1d=<grid_is_1d>,
nx=<nx>,
ny=<ny>,
time_dim_name=<time_dim_name>,
/
&jules_latlon
latitude=<latitude>,
longitude=<longitude>,
/
&jules_land_frac
/
&jules_model_grid
force_1d_grid=<force_1d_grid>,
land_only=<land_only>,
use_subgrid=<use_subgrid>,
/
&jules_surf_hgt
zero_height=<zero_height>,
/
