&jules_hydrology
l_pdm=<l_pdm>,
l_top=<l_top>,
/
